15

C      -0.7714286028       0.5721884475       1.5648994528
O      -1.9163545429       1.2651552598       1.3585245940
O      -0.3232871439       0.3453806305       2.6856889384
H      -0.2386198927       0.0473169758      -3.1356983004
H       1.8106086100      -1.3053060069      -2.7858132139
O      -1.6768410850       1.0650295484      -1.2558970875
H       1.4319019123      -0.8043435938       1.4748215886
H       2.6580511680      -1.7004062192      -0.4892887246
H      -2.2596018166       1.4887930327       2.2433128310
C      -0.6549422587       0.4025760289      -1.0187446070
C       0.1233087332      -0.1571411828      -2.1280100126
C       1.2660074098      -0.8988286619      -1.9347794419
C       1.7441534022      -1.1272237399      -0.6323129834
C       1.0490198939      -0.6209878769       0.4726114196
C      -0.1137347868       0.1066333578       0.3111295469